LAMMPS (29 Aug 2024 - Update 1)
# pouring spheres into container box

units		lj
atom_style      sphere
boundary        f f f
dimension	3
comm_modify     vel yes

region          box block -6 6 -6 6 -6 6 units box
create_box      2 box
Created orthogonal box = (-6 -6 -6) to (6 6 6)

pair_style	hybrid gran/hooke 4000.0 NULL 100.0 NULL 0.5 1
pair_coeff	* * gran/hooke

region          container cylinder z 0 0 0.52 -2.08 2.08 units box 		open 2
fix		container all wall/gran/region hooke/history 		4000.0 NULL 100.0 NULL 0.5 1 region container

neighbor	0.03 bin
neigh_modify	delay 0 every 1 check yes

fix             2 all nve/sphere
fix		3 all gravity 1.0 vector 0 0 -1

region          slab block -0.5 0.5 -0.5 0.5 2.05 2.2 units box
fix             ins all pour 500 2 4767548 vol 0.4 10 	        diam one 0.06 region slab ignore

timestep	0.005

compute         1 all temp
compute_modify  1 dynamic/dof yes

compute         2 all temp/sphere
compute_modify  2 dynamic/dof yes

thermo		100
thermo_style	custom step atoms temp c_1 c_2 press
thermo_modify   lost ignore
compute_modify  thermo_temp dynamic/dof yes

dump		2 all movie 100 cylinder.gif type type 		zoom 1.4 adiam 1.0 box no 0.0 axes yes 0.9 0.03
dump_modify	2 pad 5

run	        5000
Generated 0 of 1 mixed pair_coeff terms from geometric mixing rule
Particle insertion: 530 every 110 steps, 500 by step 1
Step        Atoms         Temp           c_1            c_2           Press
0           0   0              0              0              0
Averages over the last 26 of 51 rows, steps 2500 to 5000:
Atoms Temp c_1 c_2 Press
0 0 0 0 0
Loop time of 9.35537 on 1 procs for 5000 steps with 0 atoms

region          container delete
variable        theta equal (step-5000)*(4.0*PI/5000)
region          container cylinder z 0 0 0.52 -2.08 2.08 units box                 rotate v_theta 0 0 0 0 0 1
run	        5000
Generated 0 of 1 mixed pair_coeff terms from geometric mixing rule
Step        Atoms         Temp           c_1            c_2           Press
5000           0   0              0              0              0
Averages over the last 26 of 51 rows, steps 7500 to 10000:
Atoms Temp c_1 c_2 Press
0 0 0 0 0
Loop time of 0.175762 on 1 procs for 5000 steps with 0 atoms

region          container delete
region          container cylinder z 0 0 0.52 -2.08 2.08 units box
run             5000
Generated 0 of 1 mixed pair_coeff terms from geometric mixing rule
Step        Atoms         Temp           c_1            c_2           Press
10000           0   0              0              0              0
Averages over the last 26 of 51 rows, steps 12500 to 15000:
Atoms Temp c_1 c_2 Press
0 0 0 0 0
Loop time of 0.173844 on 1 procs for 5000 steps with 0 atoms

region          container delete
variable        theta equal (step-15000)*(4.0*PI/5000)
region          container cylinder z 0 0 0.52 -2.08 2.08 units box                 rotate v_theta 0 0 0 1 1 1
run	        5000
Generated 0 of 1 mixed pair_coeff terms from geometric mixing rule
Step        Atoms         Temp           c_1            c_2           Press
15000           0   0              0              0              0
Averages over the last 26 of 51 rows, steps 17500 to 20000:
Atoms Temp c_1 c_2 Press
0 0 0 0 0
Loop time of 0.178294 on 1 procs for 5000 steps with 0 atoms

region          container delete
region          container cylinder z 0 0 0.52 -2.08 2.08 units box
run             5000
Generated 0 of 1 mixed pair_coeff terms from geometric mixing rule
Step        Atoms         Temp           c_1            c_2           Press
20000           0   0              0              0              0
Averages over the last 26 of 51 rows, steps 22500 to 25000:
Atoms Temp c_1 c_2 Press
0 0 0 0 0
Loop time of 0.176267 on 1 procs for 5000 steps with 0 atoms
